Circuit: * C:\Users\Anton\git\4x_power_opamp\sim.asc

Direct Newton iteration failed to find .op point.  (Use ".option noopiter" to skip.)
Starting Gmin stepping
Gmin = 10
Gmin = 1.07374
Gmin = 0.115292
Gmin = 0.0123794
Gmin = 0.00132923
Gmin = 0.000142725
Gmin = 1.5325e-005
vernier = 0.5
vernier = 0.25
vernier = 0.125
vernier = 0.0625
vernier = 0.03125
Gmin = 1.85757e-005
vernier = 0.0416667
Gmin = 1.69646e-005
vernier = 0.0555555
vernier = 0.074074
Gmin = 1.46283e-005
vernier = 0.0987653
vernier = 0.131687
Gmin = 1.15788e-005
vernier = 0.175583
Gmin = 7.944e-006
vernier = 0.23411
vernier = 0.312147
Gmin = 4.31786e-006
vernier = 0.416196
vernier = 0.554928
Gmin = 1.67115e-006
vernier = 0.739903
Gmin = 3.73561e-007
vernier = 0.986537
vernier = 1
Gmin = 4.30019e-008
Gmin = 4.61729e-009
Gmin = 4.95778e-010
Gmin = 5.32338e-011
Gmin = 5.71593e-012
Gmin = 6.13744e-013
Gmin = 0
Gmin stepping succeeded in finding the operating point.


f_3db: freq=(111.299dB,0°) at 367237


Date: Sat Jan 22 22:09:15 2022
Total elapsed time: 0.125 seconds.

tnom = 27
temp = 27
method = trap
totiter = 1496
traniter = 0
tranpoints = 0
accept = 0
rejected = 0
matrix size = 84
fillins = 178
solver = Normal
Matrix Compiler1:     799 opcodes
Matrix Compiler2: 9.92 KB object code size  0.6/1.5/[0.5]

